Version 4
SHEET 1 1944 1136
WIRE 176 144 144 144
WIRE 224 144 176 144
WIRE 496 144 448 144
WIRE 752 144 704 144
WIRE 768 144 752 144
WIRE 0 176 -288 176
WIRE 176 176 144 176
WIRE 224 176 224 144
WIRE 304 176 224 176
WIRE 464 176 448 176
WIRE 496 176 496 144
WIRE 560 176 496 176
WIRE 736 176 704 176
WIRE 768 176 768 144
WIRE 816 176 768 176
WIRE -288 192 -288 176
WIRE 0 208 -160 208
WIRE 176 208 176 176
WIRE 256 208 176 208
WIRE 304 208 256 208
WIRE 464 208 464 176
WIRE 496 208 464 208
WIRE 560 208 496 208
WIRE 736 208 736 176
WIRE 768 208 736 208
WIRE 816 208 768 208
WIRE -160 304 -160 208
WIRE -160 304 -288 304
WIRE 656 320 576 320
WIRE 928 320 880 320
WIRE 1200 320 1136 320
WIRE -288 336 -288 304
WIRE 608 352 576 352
WIRE 656 352 656 320
WIRE 736 352 656 352
WIRE 896 352 880 352
WIRE 928 352 928 320
WIRE 992 352 928 352
WIRE 1168 352 1136 352
WIRE 1200 352 1200 320
WIRE 1248 352 1200 352
WIRE 608 384 608 352
WIRE 736 384 608 384
WIRE 896 384 896 352
WIRE 992 384 896 384
WIRE 1168 384 1168 352
WIRE 1248 384 1168 384
WIRE 640 560 528 560
WIRE 784 560 784 544
WIRE 784 560 704 560
WIRE 480 640 400 640
WIRE 784 688 784 560
WIRE 1024 704 944 704
WIRE 1056 704 1024 704
WIRE 1104 704 1056 704
WIRE 1184 704 1104 704
WIRE 400 720 400 640
WIRE 400 800 400 720
WIRE 1184 800 1184 784
WIRE 1216 800 1184 800
WIRE 1248 800 1216 800
WIRE 1408 800 1312 800
WIRE 48 816 -16 816
WIRE 80 816 48 816
WIRE 400 880 400 800
WIRE 1104 880 1104 784
WIRE 1200 880 1104 880
WIRE 1248 880 1200 880
WIRE 1312 880 1312 800
WIRE -80 896 -192 896
WIRE -64 896 -80 896
WIRE -192 960 -192 896
WIRE 1024 960 1024 784
WIRE 1200 960 1024 960
WIRE 1248 960 1200 960
WIRE 1312 960 1312 880
WIRE -192 1024 -192 960
WIRE 944 1040 944 784
WIRE 1200 1040 944 1040
WIRE 1248 1040 1200 1040
WIRE 1312 1040 1312 960
WIRE 1376 1040 1312 1040
WIRE -192 1088 -192 1024
FLAG -288 112 0
FLAG -288 272 0
FLAG -288 416 0
FLAG 0 144 RST
FLAG 256 208 Q1
FLAG 176 144 NQ1
FLAG -288 32 Vcc
FLAG 80 128 Vcc
FLAG -288 624 0
FLAG 784 544 RST
FLAG 496 144 NQ2
FLAG 752 144 NQ4
FLAG 960 144 NQ8
FLAG 496 208 Q2
FLAG 768 208 Q4
FLAG 960 176 Q8
FLAG 304 144 RST
FLAG 560 144 RST
FLAG 816 144 RST
FLAG 384 128 Vcc
FLAG 640 128 Vcc
FLAG 896 128 Vcc
FLAG 528 656 0
FLAG 400 560 Vcc
FLAG 336 640 NQ1
FLAG 336 720 Q2
FLAG 336 800 NQ4
FLAG 336 880 Q8
FLAG -288 544 RSTin
FLAG 784 752 RSTin
FLAG -192 816 Vcc
FLAG -16 912 0
FLAG -256 896 NQ1
FLAG -256 960 NQ2
FLAG -256 1024 NQ4
FLAG -256 1088 NQ8
FLAG 48 816 NC
FLAG 512 304 Vcc
FLAG 816 304 Vcc
FLAG 1072 304 Vcc
FLAG 1328 304 Vcc
FLAG 432 352 C
FLAG 432 384 NC
FLAG -80 960 0
FLAG 1456 816 0
FLAG 1376 1120 0
FLAG 1056 704 Vcc
FLAG 1216 800 Q1
FLAG 1200 880 Q2
FLAG 1200 960 Q4
FLAG 1200 1040 Q8
FLAG 1456 720 C
FLAG 1888 144 Vcc
FLAG 1888 288 Vcc
FLAG 1888 448 Vcc
FLAG 1888 576 Vcc
FLAG 1744 144 NQ1
FLAG 1744 288 NQ2
FLAG 1744 448 NQ4
FLAG 1744 576 NQ8
FLAG 1744 576 NQ8
SYMBOL ff-arst-nmos-diode 64 176 R0
WINDOW 0 0 -56 Bottom 2
SYMATTR InstName X1
SYMBOL voltage -288 16 R0
SYMATTR InstName V1
SYMATTR Value 5
SYMBOL voltage -288 176 R0
SYMATTR InstName V2
SYMATTR Value PULSE(0 5 0 100n 100n 500m 1)
SYMBOL voltage -288 320 R0
SYMATTR InstName V3
SYMATTR Value PULSE(0 5 500m 100n 100n 500m 1)
SYMBOL voltage -288 528 R0
SYMATTR InstName V4
SYMATTR Value PULSE(0 5 2.6 1n 1n 29 60)
SYMBOL ff-arst-nmos-diode 368 176 R0
WINDOW 0 0 -56 Bottom 2
SYMATTR InstName X2
SYMBOL ff-arst-nmos-diode 624 176 R0
WINDOW 0 0 -56 Bottom 2
SYMATTR InstName X3
SYMBOL ff-arst-nmos-diode 880 176 R0
WINDOW 0 0 -56 Bottom 2
SYMATTR InstName X4
SYMBOL nmos 480 560 R0
SYMATTR InstName M1
SYMATTR Value 2N7002
SYMBOL diode 400 624 R90
WINDOW 0 0 32 VBottom 2
WINDOW 3 21 -55 VTop 2
SYMATTR InstName D1
SYMATTR Value 1N4148
SYMBOL diode 400 704 R90
WINDOW 0 0 32 VBottom 2
WINDOW 3 21 -55 VTop 2
SYMATTR InstName D2
SYMATTR Value 1N4148
SYMBOL diode 400 784 R90
WINDOW 0 0 32 VBottom 2
WINDOW 3 21 -55 VTop 2
SYMATTR InstName D3
SYMATTR Value 1N4148
SYMBOL diode 400 864 R90
WINDOW 0 0 32 VBottom 2
WINDOW 3 21 -55 VTop 2
SYMATTR InstName D4
SYMATTR Value 1N4148
SYMBOL res 384 544 R0
SYMATTR InstName R1
SYMATTR Value 20k
SYMBOL diode 704 544 R90
WINDOW 0 0 32 VBottom 2
WINDOW 3 21 -55 VTop 2
SYMATTR InstName D5
SYMATTR Value 1N4148
SYMBOL diode 768 688 R0
SYMATTR InstName D6
SYMATTR Value 1N4148
SYMBOL diode -192 880 R90
WINDOW 0 0 32 VBottom 2
WINDOW 3 21 -55 VTop 2
SYMATTR InstName D7
SYMATTR Value 1N4148
SYMBOL diode -192 944 R90
WINDOW 0 0 32 VBottom 2
WINDOW 3 21 -55 VTop 2
SYMATTR InstName D8
SYMATTR Value 1N4148
SYMBOL diode -192 1008 R90
WINDOW 0 0 32 VBottom 2
WINDOW 3 21 -55 VTop 2
SYMATTR InstName D9
SYMATTR Value 1N4148
SYMBOL diode -192 1072 R90
WINDOW 0 0 32 VBottom 2
WINDOW 3 21 -55 VTop 2
SYMATTR InstName D10
SYMATTR Value 1N4148
SYMBOL res -208 800 R0
SYMATTR InstName R2
SYMATTR Value 20k
SYMBOL nmos -64 816 R0
SYMATTR InstName M2
SYMATTR Value 2N7002
SYMBOL ff-arst-nmos-diode 496 352 R0
WINDOW 0 0 -56 Bottom 2
SYMATTR InstName X5
SYMBOL ff-arst-nmos-diode 800 352 R0
WINDOW 0 0 -56 Bottom 2
SYMATTR InstName X6
SYMBOL ff-arst-nmos-diode 1056 352 R0
WINDOW 0 0 -56 Bottom 2
SYMATTR InstName X7
SYMBOL ff-arst-nmos-diode 1312 352 R0
WINDOW 0 0 -56 Bottom 2
SYMATTR InstName X8
SYMBOL cap -96 896 R0
SYMATTR InstName C1
SYMATTR Value 1n
SYMBOL nmos 1408 720 R0
SYMATTR InstName M3
SYMATTR Value 2N7002
SYMBOL diode 1248 816 R270
WINDOW 0 32 32 VTop 2
WINDOW 3 0 32 VBottom 2
SYMATTR InstName D11
SYMATTR Value 1N4148
SYMBOL diode 1248 896 R270
WINDOW 0 32 32 VTop 2
WINDOW 3 0 32 VBottom 2
SYMATTR InstName D12
SYMATTR Value 1N4148
SYMBOL diode 1248 976 R270
WINDOW 0 32 32 VTop 2
WINDOW 3 0 32 VBottom 2
SYMATTR InstName D13
SYMATTR Value 1N4148
SYMBOL diode 1248 1056 R270
WINDOW 0 32 32 VTop 2
WINDOW 3 0 32 VBottom 2
SYMATTR InstName D14
SYMATTR Value 1N4148
SYMBOL res 1168 688 R0
SYMATTR InstName R3
SYMATTR Value 10k
SYMBOL res 1088 688 R0
SYMATTR InstName R4
SYMATTR Value 10k
SYMBOL res 1008 688 R0
SYMATTR InstName R5
SYMATTR Value 10k
SYMBOL res 928 688 R0
SYMATTR InstName R6
SYMATTR Value 10k
SYMBOL res 1360 1024 R0
SYMATTR InstName R7
SYMATTR Value 40k
SYMBOL LED 1808 128 R90
WINDOW 0 0 32 VBottom 2
WINDOW 3 72 32 VTop 2
SYMATTR InstName D15
SYMATTR Value NSCW100
SYMBOL res 1904 128 R90
WINDOW 0 0 56 VBottom 2
WINDOW 3 32 56 VTop 2
SYMATTR InstName R8
SYMATTR Value 50
SYMBOL LED 1808 272 R90
WINDOW 0 0 32 VBottom 2
WINDOW 3 72 32 VTop 2
SYMATTR InstName D16
SYMATTR Value NSCW100
SYMBOL res 1904 272 R90
WINDOW 0 0 56 VBottom 2
WINDOW 3 32 56 VTop 2
SYMATTR InstName R9
SYMATTR Value 50
SYMBOL LED 1808 432 R90
WINDOW 0 0 32 VBottom 2
WINDOW 3 72 32 VTop 2
SYMATTR InstName D17
SYMATTR Value NSCW100
SYMBOL res 1904 432 R90
WINDOW 0 0 56 VBottom 2
WINDOW 3 32 56 VTop 2
SYMATTR InstName R10
SYMATTR Value 50
SYMBOL LED 1808 560 R90
WINDOW 0 0 32 VBottom 2
WINDOW 3 72 32 VTop 2
SYMATTR InstName D18
SYMATTR Value NSCW100
SYMBOL res 1904 560 R90
WINDOW 0 0 56 VBottom 2
WINDOW 3 32 56 VTop 2
SYMATTR InstName R11
SYMATTR Value 50
TEXT 888 -136 Left 2 !.tran 0 40
