Version 4
SHEET 1 1148 680
WIRE 176 144 144 144
WIRE 224 144 176 144
WIRE 0 176 -288 176
WIRE 176 176 144 176
WIRE 224 176 224 144
WIRE 304 176 224 176
WIRE -288 192 -288 176
WIRE 0 208 -160 208
WIRE 176 208 176 176
WIRE 256 208 176 208
WIRE 304 208 256 208
WIRE -160 304 -160 208
WIRE -160 304 -288 304
WIRE -288 336 -288 304
FLAG -288 112 0
FLAG -288 272 0
FLAG -288 416 0
FLAG 0 144 RST
FLAG 256 208 Q1
FLAG 176 144 NQ1
FLAG -288 32 Vcc
FLAG 80 128 Vcc
FLAG -288 624 0
FLAG -288 544 RST
SYMBOL ff-arst-nmos-diode 64 176 R0
WINDOW 0 0 -56 Bottom 2
SYMATTR InstName X1
SYMBOL voltage -288 16 R0
SYMATTR InstName V1
SYMATTR Value 5
SYMBOL voltage -288 176 R0
SYMATTR InstName V2
SYMATTR Value PULSE(0 5 0 1n 1n 500m 1)
SYMBOL voltage -288 320 R0
SYMATTR InstName V3
SYMATTR Value PULSE(0 5 500m 1n 1n 500m 1)
SYMBOL voltage -288 528 R0
SYMATTR InstName V4
SYMATTR Value PULSE(0 5 2.6 1n 1n 29 30)
TEXT 888 -136 Left 2 !.tran 0 20
